k_7MW.fds
Generated by PyroSim 2024.2.1209
2025. 2. 26. 오후 2:37:07

&HEAD CHID='fst_6MW'/
&TIME T_END=150.0/
&DUMP DT_DEVC=1.0, DT_RESTART=300.0, DT_SLCF=1.0/
&MISC TMPA=22.0/

&MESH ID='Mesh01', IJK=148,112,30, XB=-8.0,66.0,-2.0,54.0,-2.0,13.0/

&SPEC ID='SFPE WOOD_OAK_fuel01', FORMULA='C1.0H1.7O0.72N0.001'/

&REAC ID='SFPE WOOD_OAK',
      FYI='SFPE Handbook, 5th Ed, Tables A.38 and A.39 "Red oak"',
      FUEL='SFPE WOOD_OAK_fuel01',
      CO_YIELD=0.2,
      SOOT_YIELD=0.05,
      HEAT_OF_COMBUSTION=1.24E+4,
      RADIATIVE_FRACTION=0.35/

&DEVC ID='Temp00', QUANTITY='TEMPERATURE', XYZ=2.0,49.0,1.0/
&DEVC ID='Temp01', QUANTITY='TEMPERATURE', XYZ=9.0,49.0,1.0/
&DEVC ID='Temp02', QUANTITY='TEMPERATURE', XYZ=16.0,49.0,1.0/
&DEVC ID='Temp03', QUANTITY='TEMPERATURE', XYZ=23.0,49.0,1.0/
&DEVC ID='Temp04', QUANTITY='TEMPERATURE', XYZ=30.0,49.0,1.0/
&DEVC ID='Temp05', QUANTITY='TEMPERATURE', XYZ=37.0,49.0,1.0/
&DEVC ID='Temp06', QUANTITY='TEMPERATURE', XYZ=44.0,49.0,1.0/
&DEVC ID='Temp07', QUANTITY='TEMPERATURE', XYZ=51.0,49.0,1.0/
&DEVC ID='Temp08', QUANTITY='TEMPERATURE', XYZ=58.0,49.0,1.0/
&DEVC ID='Temp09', QUANTITY='TEMPERATURE', XYZ=65.0,49.0,1.0/
&DEVC ID='Temp10', QUANTITY='TEMPERATURE', XYZ=51.0,41.5,1.0/
&DEVC ID='Temp11', QUANTITY='TEMPERATURE', XYZ=65.0,41.5,1.0/
&DEVC ID='Temp12', QUANTITY='TEMPERATURE', XYZ=58.0,41.5,1.0/
&DEVC ID='Temp13', QUANTITY='TEMPERATURE', XYZ=44.0,41.5,1.0/
&DEVC ID='Temp14', QUANTITY='TEMPERATURE', XYZ=37.0,41.5,1.0/
&DEVC ID='Temp15', QUANTITY='TEMPERATURE', XYZ=30.0,41.5,1.0/
&DEVC ID='Temp16', QUANTITY='TEMPERATURE', XYZ=23.0,41.5,1.0/
&DEVC ID='Temp17', QUANTITY='TEMPERATURE', XYZ=16.0,41.5,1.0/
&DEVC ID='Temp18', QUANTITY='TEMPERATURE', XYZ=9.0,41.5,1.0/
&DEVC ID='Temp19', QUANTITY='TEMPERATURE', XYZ=2.0,41.5,1.0/
&DEVC ID='Temp20', QUANTITY='TEMPERATURE', XYZ=51.0,34.0,1.0/
&DEVC ID='Temp21', QUANTITY='TEMPERATURE', XYZ=65.0,34.0,1.0/
&DEVC ID='Temp22', QUANTITY='TEMPERATURE', XYZ=58.0,34.0,1.0/
&DEVC ID='Temp23', QUANTITY='TEMPERATURE', XYZ=44.0,34.0,1.0/
&DEVC ID='Temp24', QUANTITY='TEMPERATURE', XYZ=37.0,34.0,1.0/
&DEVC ID='Temp25', QUANTITY='TEMPERATURE', XYZ=30.0,34.0,1.0/
&DEVC ID='Temp26', QUANTITY='TEMPERATURE', XYZ=23.0,34.0,1.0/
&DEVC ID='Temp27', QUANTITY='TEMPERATURE', XYZ=16.0,34.0,1.0/
&DEVC ID='Temp28', QUANTITY='TEMPERATURE', XYZ=9.0,34.0,1.0/
&DEVC ID='Temp29', QUANTITY='TEMPERATURE', XYZ=2.0,34.0,1.0/
&DEVC ID='Temp30', QUANTITY='TEMPERATURE', XYZ=51.0,26.5,1.0/
&DEVC ID='Temp31', QUANTITY='TEMPERATURE', XYZ=65.0,26.5,1.0/
&DEVC ID='Temp32', QUANTITY='TEMPERATURE', XYZ=58.0,26.5,1.0/
&DEVC ID='Temp33', QUANTITY='TEMPERATURE', XYZ=44.0,26.5,1.0/
&DEVC ID='Temp34', QUANTITY='TEMPERATURE', XYZ=37.0,26.5,1.0/
&DEVC ID='Temp35', QUANTITY='TEMPERATURE', XYZ=30.0,26.5,1.0/
&DEVC ID='Temp36', QUANTITY='TEMPERATURE', XYZ=23.0,26.5,1.0/
&DEVC ID='Temp37', QUANTITY='TEMPERATURE', XYZ=16.0,26.5,1.0/
&DEVC ID='Temp38', QUANTITY='TEMPERATURE', XYZ=9.0,26.5,1.0/
&DEVC ID='Temp39', QUANTITY='TEMPERATURE', XYZ=2.0,26.5,1.0/
&DEVC ID='Temp40', QUANTITY='TEMPERATURE', XYZ=51.0,19.0,1.0/
&DEVC ID='Temp41', QUANTITY='TEMPERATURE', XYZ=65.0,19.0,1.0/
&DEVC ID='Temp42', QUANTITY='TEMPERATURE', XYZ=58.0,19.0,1.0/
&DEVC ID='Temp43', QUANTITY='TEMPERATURE', XYZ=44.0,19.0,1.0/
&DEVC ID='Temp44', QUANTITY='TEMPERATURE', XYZ=37.0,19.0,1.0/
&DEVC ID='Temp45', QUANTITY='TEMPERATURE', XYZ=30.0,19.0,1.0/
&DEVC ID='Temp46', QUANTITY='TEMPERATURE', XYZ=23.0,19.0,1.0/
&DEVC ID='Temp47', QUANTITY='TEMPERATURE', XYZ=16.0,19.0,1.0/
&DEVC ID='Temp48', QUANTITY='TEMPERATURE', XYZ=9.0,19.0,1.0/
&DEVC ID='Temp49', QUANTITY='TEMPERATURE', XYZ=2.0,19.0,1.0/
&DEVC ID='Temp50', QUANTITY='TEMPERATURE', XYZ=51.0,11.5,1.0/
&DEVC ID='Temp51', QUANTITY='TEMPERATURE', XYZ=65.0,11.5,1.0/
&DEVC ID='Temp52', QUANTITY='TEMPERATURE', XYZ=58.0,11.5,1.0/
&DEVC ID='Temp53', QUANTITY='TEMPERATURE', XYZ=44.0,11.5,1.0/
&DEVC ID='Temp54', QUANTITY='TEMPERATURE', XYZ=37.0,11.5,1.0/
&DEVC ID='Temp55', QUANTITY='TEMPERATURE', XYZ=30.0,11.5,1.0/
&DEVC ID='Temp56', QUANTITY='TEMPERATURE', XYZ=23.0,11.5,1.0/
&DEVC ID='Temp57', QUANTITY='TEMPERATURE', XYZ=16.0,11.5,1.0/
&DEVC ID='Temp58', QUANTITY='TEMPERATURE', XYZ=9.0,11.5,1.0/
&DEVC ID='Temp59', QUANTITY='TEMPERATURE', XYZ=2.0,11.5,1.0/
&DEVC ID='Temp60', QUANTITY='TEMPERATURE', XYZ=51.0,4.0,1.0/
&DEVC ID='Temp61', QUANTITY='TEMPERATURE', XYZ=65.0,4.0,1.0/
&DEVC ID='Temp62', QUANTITY='TEMPERATURE', XYZ=58.0,4.0,1.0/
&DEVC ID='Temp63', QUANTITY='TEMPERATURE', XYZ=44.0,4.0,1.0/
&DEVC ID='Temp64', QUANTITY='TEMPERATURE', XYZ=37.0,4.0,1.0/
&DEVC ID='Temp65', QUANTITY='TEMPERATURE', XYZ=30.0,4.0,1.0/
&DEVC ID='Temp66', QUANTITY='TEMPERATURE', XYZ=23.0,4.0,1.0/
&DEVC ID='Temp67', QUANTITY='TEMPERATURE', XYZ=16.0,4.0,1.0/
&DEVC ID='Temp68', QUANTITY='TEMPERATURE', XYZ=9.0,4.0,1.0/
&DEVC ID='Temp69', QUANTITY='TEMPERATURE', XYZ=2.0,4.0,1.0/
&DEVC ID='CO00', QUANTITY='TEMPERATURE', XYZ=2.0,49.0,1.0/
&DEVC ID='CO01', QUANTITY='TEMPERATURE', XYZ=9.0,49.0,1.0/
&DEVC ID='CO02', QUANTITY='TEMPERATURE', XYZ=16.0,49.0,1.0/
&DEVC ID='CO03', QUANTITY='TEMPERATURE', XYZ=23.0,49.0,1.0/
&DEVC ID='CO04', QUANTITY='TEMPERATURE', XYZ=30.0,49.0,1.0/
&DEVC ID='CO05', QUANTITY='TEMPERATURE', XYZ=37.0,49.0,1.0/
&DEVC ID='CO06', QUANTITY='TEMPERATURE', XYZ=44.0,49.0,1.0/
&DEVC ID='CO07', QUANTITY='TEMPERATURE', XYZ=51.0,49.0,1.0/
&DEVC ID='CO08', QUANTITY='TEMPERATURE', XYZ=58.0,49.0,1.0/
&DEVC ID='CO09', QUANTITY='TEMPERATURE', XYZ=65.0,49.0,1.0/
&DEVC ID='CO10', QUANTITY='TEMPERATURE', XYZ=2.0,41.5,1.0/
&DEVC ID='CO11', QUANTITY='TEMPERATURE', XYZ=16.0,41.5,1.0/
&DEVC ID='CO12', QUANTITY='TEMPERATURE', XYZ=9.0,41.5,1.0/
&DEVC ID='CO13', QUANTITY='TEMPERATURE', XYZ=23.0,41.5,1.0/
&DEVC ID='CO14', QUANTITY='TEMPERATURE', XYZ=30.0,41.5,1.0/
&DEVC ID='CO15', QUANTITY='TEMPERATURE', XYZ=37.0,41.5,1.0/
&DEVC ID='CO16', QUANTITY='TEMPERATURE', XYZ=44.0,41.5,1.0/
&DEVC ID='CO17', QUANTITY='TEMPERATURE', XYZ=51.0,41.5,1.0/
&DEVC ID='CO18', QUANTITY='TEMPERATURE', XYZ=58.0,41.5,1.0/
&DEVC ID='CO19', QUANTITY='TEMPERATURE', XYZ=65.0,41.5,1.0/
&DEVC ID='CO20', QUANTITY='TEMPERATURE', XYZ=2.0,34.0,1.0/
&DEVC ID='CO21', QUANTITY='TEMPERATURE', XYZ=16.0,34.0,1.0/
&DEVC ID='CO22', QUANTITY='TEMPERATURE', XYZ=9.0,34.0,1.0/
&DEVC ID='CO23', QUANTITY='TEMPERATURE', XYZ=23.0,34.0,1.0/
&DEVC ID='CO24', QUANTITY='TEMPERATURE', XYZ=30.0,34.0,1.0/
&DEVC ID='CO25', QUANTITY='TEMPERATURE', XYZ=37.0,34.0,1.0/
&DEVC ID='CO26', QUANTITY='TEMPERATURE', XYZ=44.0,34.0,1.0/
&DEVC ID='CO27', QUANTITY='TEMPERATURE', XYZ=51.0,34.0,1.0/
&DEVC ID='CO28', QUANTITY='TEMPERATURE', XYZ=58.0,34.0,1.0/
&DEVC ID='CO29', QUANTITY='TEMPERATURE', XYZ=65.0,34.0,1.0/
&DEVC ID='CO30', QUANTITY='TEMPERATURE', XYZ=2.0,26.5,1.0/
&DEVC ID='CO31', QUANTITY='TEMPERATURE', XYZ=16.0,26.5,1.0/
&DEVC ID='CO32', QUANTITY='TEMPERATURE', XYZ=9.0,26.5,1.0/
&DEVC ID='CO33', QUANTITY='TEMPERATURE', XYZ=23.0,26.5,1.0/
&DEVC ID='CO34', QUANTITY='TEMPERATURE', XYZ=30.0,26.5,1.0/
&DEVC ID='CO35', QUANTITY='TEMPERATURE', XYZ=37.0,26.5,1.0/
&DEVC ID='CO36', QUANTITY='TEMPERATURE', XYZ=44.0,26.5,1.0/
&DEVC ID='CO37', QUANTITY='TEMPERATURE', XYZ=51.0,26.5,1.0/
&DEVC ID='CO38', QUANTITY='TEMPERATURE', XYZ=58.0,26.5,1.0/
&DEVC ID='CO39', QUANTITY='TEMPERATURE', XYZ=65.0,26.5,1.0/
&DEVC ID='CO40', QUANTITY='TEMPERATURE', XYZ=2.0,19.0,1.0/
&DEVC ID='CO41', QUANTITY='TEMPERATURE', XYZ=16.0,19.0,1.0/
&DEVC ID='CO42', QUANTITY='TEMPERATURE', XYZ=9.0,19.0,1.0/
&DEVC ID='CO43', QUANTITY='TEMPERATURE', XYZ=23.0,19.0,1.0/
&DEVC ID='CO44', QUANTITY='TEMPERATURE', XYZ=30.0,19.0,1.0/
&DEVC ID='CO45', QUANTITY='TEMPERATURE', XYZ=37.0,19.0,1.0/
&DEVC ID='CO46', QUANTITY='TEMPERATURE', XYZ=44.0,19.0,1.0/
&DEVC ID='CO47', QUANTITY='TEMPERATURE', XYZ=51.0,19.0,1.0/
&DEVC ID='CO48', QUANTITY='TEMPERATURE', XYZ=58.0,19.0,1.0/
&DEVC ID='CO49', QUANTITY='TEMPERATURE', XYZ=65.0,19.0,1.0/
&DEVC ID='CO50', QUANTITY='TEMPERATURE', XYZ=2.0,11.5,1.0/
&DEVC ID='CO51', QUANTITY='TEMPERATURE', XYZ=16.0,11.5,1.0/
&DEVC ID='CO52', QUANTITY='TEMPERATURE', XYZ=9.0,11.5,1.0/
&DEVC ID='CO53', QUANTITY='TEMPERATURE', XYZ=23.0,11.5,1.0/
&DEVC ID='CO54', QUANTITY='TEMPERATURE', XYZ=30.0,11.5,1.0/
&DEVC ID='CO55', QUANTITY='TEMPERATURE', XYZ=37.0,11.5,1.0/
&DEVC ID='CO56', QUANTITY='TEMPERATURE', XYZ=44.0,11.5,1.0/
&DEVC ID='CO57', QUANTITY='TEMPERATURE', XYZ=51.0,11.5,1.0/
&DEVC ID='CO58', QUANTITY='TEMPERATURE', XYZ=58.0,11.5,1.0/
&DEVC ID='CO59', QUANTITY='TEMPERATURE', XYZ=65.0,11.5,1.0/
&DEVC ID='CO60', QUANTITY='TEMPERATURE', XYZ=2.0,4.0,1.0/
&DEVC ID='CO61', QUANTITY='TEMPERATURE', XYZ=16.0,4.0,1.0/
&DEVC ID='CO62', QUANTITY='TEMPERATURE', XYZ=9.0,4.0,1.0/
&DEVC ID='CO63', QUANTITY='TEMPERATURE', XYZ=23.0,4.0,1.0/
&DEVC ID='CO64', QUANTITY='TEMPERATURE', XYZ=30.0,4.0,1.0/
&DEVC ID='CO65', QUANTITY='TEMPERATURE', XYZ=37.0,4.0,1.0/
&DEVC ID='CO66', QUANTITY='TEMPERATURE', XYZ=44.0,4.0,1.0/
&DEVC ID='CO67', QUANTITY='TEMPERATURE', XYZ=51.0,4.0,1.0/
&DEVC ID='CO68', QUANTITY='TEMPERATURE', XYZ=58.0,4.0,1.0/
&DEVC ID='CO69', QUANTITY='TEMPERATURE', XYZ=65.0,4.0,1.0/

&MATL ID='CONCRETE',
      FYI='NBSIR 88-3752 - ATF NIST Multi-Floor Validation',
      SPECIFIC_HEAT=1.04,
      CONDUCTIVITY=1.8,
      DENSITY=2280.0/
&MATL ID='STEEL',
      FYI='Drysdale, Intro to Fire Dynamics - ATF NIST Multi-Floor Validation',
      SPECIFIC_HEAT=0.46,
      CONDUCTIVITY=45.8,
      DENSITY=7850.0,
      EMISSIVITY=0.95/
&MATL ID='Tempered Glass',
      SPECIFIC_HEAT=0.84,
      CONDUCTIVITY=1.0,
      DENSITY=2500.0/
&MATL ID='FIRE BRICK',
      FYI='NBSIR 88-3752 - NBS Multi-Room Validation',
      SPECIFIC_HEAT=1.04,
      CONDUCTIVITY_RAMP='FIRE BRICK_CONDUCTIVITY_RAMP',
      DENSITY=750.0,
      EMISSIVITY=0.8/
&RAMP ID='FIRE BRICK_CONDUCTIVITY_RAMP', T=20.0, F=0.36/
&RAMP ID='FIRE BRICK_CONDUCTIVITY_RAMP', T=200.0, F=0.36/
&RAMP ID='FIRE BRICK_CONDUCTIVITY_RAMP', T=300.0, F=0.38/
&RAMP ID='FIRE BRICK_CONDUCTIVITY_RAMP', T=600.0, F=0.45/
&MATL ID='GYPSUM PLASTER',
      FYI='Quintiere, Fire Behavior - NIST NRC Validation',
      SPECIFIC_HEAT=0.84,
      CONDUCTIVITY=0.48,
      DENSITY=1440.0/
&MATL ID='FOAM',
      FYI='Caution: Reaction Rate Not Validated, remaining data from Jukka Hietaniemi, et al., "FDS simulation of fire spread..."',
      SPECIFIC_HEAT=1.7,
      CONDUCTIVITY=0.05,
      DENSITY=28.0/

&SURF ID='Concrete - Precast Concrete - 35 MPa',
      RGB=198,187,187,
      MATL_ID(1,1)='CONCRETE',
      MATL_MASS_FRACTION(1,1)=1.0,
      THICKNESS(1)=0.2/
&SURF ID='Concrete - Cast-in-Place Concrete',
      RGB=191,178,173/
&SURF ID='Default',
      COLOR='GRAY 50'/
&SURF ID='Metal - Stud Layer',
      COLOR='GRAY 50',
      MATL_ID(1,1)='STEEL',
      MATL_MASS_FRACTION(1,1)=1.0,
      THICKNESS(1)=0.1/
&SURF ID='Glass',
      RGB=0,128,192,
      TRANSPARENCY=0.101961,
      HRRPUA=30.0,
      IGNITION_TEMPERATURE=355.0,
      BURN_AWAY=.TRUE.,
      MATL_ID(1,1)='Tempered Glass',
      MATL_MASS_FRACTION(1,1)=1.0,
      THICKNESS(1)=0.02/
&SURF ID='Stone - Granite',
      RGB=96,76,69,
      HRRPUA=1000.0,
      IGNITION_TEMPERATURE=1800.0,
      BURN_AWAY=.TRUE.,
      MATL_ID(1,1)='FIRE BRICK',
      MATL_MASS_FRACTION(1,1)=1.0,
      THICKNESS(1)=0.1/
&SURF ID='Metal - Aluminium, Black-Anodized',
      COLOR='GRAY 4',
      MATL_ID(1,1)='STEEL',
      MATL_MASS_FRACTION(1,1)=1.0,
      THICKNESS(1)=0.05/
&SURF ID='Metal - Paint Finish - Paint Cafe Matte',
      RGB=193,129,69,
      MATL_ID(1,1)='STEEL',
      MATL_MASS_FRACTION(1,1)=1.0,
      THICKNESS(1)=0.1/
&SURF ID='Metal - Bronze',
      RGB=105,77,58,
      MATL_ID(1,1)='STEEL',
      MATL_MASS_FRACTION(1,1)=1.0,
      THICKNESS(1)=0.1/
&SURF ID='Default Wall',
      COLOR='GRAY',
      MATL_ID(1,1)='CONCRETE',
      MATL_MASS_FRACTION(1,1)=1.0,
      THICKNESS(1)=0.3/
&SURF ID='Plasterboard',
      RGB=244,244,244,
      HRRPUA=700.0,
      IGNITION_TEMPERATURE=600.0,
      MATL_ID(1,1)='GYPSUM PLASTER',
      MATL_MASS_FRACTION(1,1)=1.0,
      THICKNESS(1)=0.25/
&SURF ID='Insulation / Thermal Barriers - External Wall Insulation',
      RGB=234,234,234/
&SURF ID='Sash',
      RGB=224,178,126/
&SURF ID='Fire',
      COLOR='RED',
      TEXTURE_MAP='psm_fire.jpg',
      HRRPUA=6000.0,
      TMP_FRONT=880.0,
      TAU_T=10.0/
&SURF ID='bed_Foam',
      RGB=146,202,166,
      TEXTURE_MAP='psm_blue.jpg',
      TEXTURE_WIDTH=0.6096,
      TEXTURE_HEIGHT=0.6096,
      HRRPUA=1000.0,
      IGNITION_TEMPERATURE=400.0,
      BURN_AWAY=.TRUE.,
      MATL_ID(1,1)='FOAM',
      MATL_MASS_FRACTION(1,1)=1.0,
      THICKNESS(1)=1.0/

&OBST ID='기본 벽:Generic - 200mm:144344', XB=33.570899,33.770899,44.821102,53.116602,0.0,3.8, COLOR='GRAY', SURF_ID='Default Wall'/ 
&OBST ID='기본 벽:Exterior - Insulation on Masonry:139854', XB=65.571578,65.874578,-0.8491,7.891602,0.0,3.8, COLOR='GRAY', SURF_ID='Default Wall'/ 
&OBST ID='기본 벽:Exterior - Insulation on Masonry:139857', XB=15.849601,36.713899,53.116602,53.419602,0.0,3.8, RGB=234,234,234, SURF_ID='Insulation / Thermal Barriers - External Wall Insulation'/ 
&OBST ID='기본 벽:Interior - 138mm Partition (1-hr):143858', XB=17.355351,33.770899,44.821102,44.959602,0.0,3.535, RGB=244,244,244, SURF_ID='Plasterboard'/ 
&OBST ID='기본 벽:Interior - 138mm Partition (1-hr):144051', XB=10.6562,16.51575,7.5654,7.7039,0.0,3.535, RGB=244,244,244, SURF_ID='Plasterboard'/ 
&OBST ID='기본 벽:Interior - 138mm Partition (1-hr):144180', XB=17.35535,17.49385,44.959602,53.116602,0.0,3.535, RGB=244,244,244, SURF_ID='Plasterboard'/ 
&OBST ID='기본 벽:Interior - 138mm Partition (1-hr):144230', XB=21.31535,21.45385,44.959602,53.116602,0.0,3.535, RGB=244,244,244, SURF_ID='Plasterboard'/ 
&OBST ID='기본 벽:Interior - 138mm Partition (1-hr):144289', XB=27.33535,27.47385,44.959602,53.116602,0.0,3.535, RGB=244,244,244, SURF_ID='Plasterboard'/ 
&OBST ID='기본 벽:Exterior - Insulation on Masonry:144837', XB=-0.4953,7.7547,28.551,28.854,0.0,3.8, RGB=234,234,234, SURF_ID='Insulation / Thermal Barriers - External Wall Insulation'/ 
&OBST ID='기본 벽:Interior - 138mm Partition (1-hr):145109', XB=27.47385,33.570899,50.454852,50.593352,0.0,3.535, RGB=244,244,244, SURF_ID='Plasterboard'/ 
&OBST ID='기본 벽:Interior - 138mm Partition (1-hr):145174', XB=30.34535,30.48385,44.959602,50.454852,0.0,3.535, RGB=244,244,244, SURF_ID='Plasterboard'/ 
&OBST ID='기본 벽:Interior - 138mm Partition (1-hr):145211', XB=30.48385,33.570899,47.174102,47.312602,0.0,3.535, RGB=244,244,244, SURF_ID='Plasterboard'/ 
&OBST ID='기본 벽:Interior - 138mm Partition (1-hr):145263', XB=33.001649,33.140149,44.959602,47.174102,0.0,3.535, RGB=244,244,244, SURF_ID='Plasterboard'/ 
&OBST ID='기본 벽:Exterior - Insulation on Masonry:148769', XB=-0.7983,-0.4953,24.895549,28.854,-7.453309E-13,3.8, RGB=234,234,234, SURF_ID='Insulation / Thermal Barriers - External Wall Insulation'/ 
&OBST ID='기본 벽:Interior - 138mm Partition (1-hr):149189', XB=-0.4953,7.7547,24.89555,25.03405,0.0,3.535, RGB=244,244,244, SURF_ID='Plasterboard'/ 
&OBST ID='기본 벽:Interior - 138mm Partition (1-hr):149293', XB=-0.5203,7.6162,18.8263,18.9648,0.0,3.535, RGB=244,244,244, SURF_ID='Plasterboard'/ 
&OBST ID='기본 벽:Interior - 138mm Partition (1-hr):149395', XB=-0.5203,7.6162,14.8263,14.9648,0.0,3.535, RGB=244,244,244, SURF_ID='Plasterboard'/ 
&OBST ID='기본 벽:Interior - 138mm Partition (1-hr):149505', XB=2.03545,2.17395,25.03405,28.551,0.0,3.535, RGB=244,244,244, SURF_ID='Plasterboard'/ 
&OBST ID='기본 벽:Interior - 138mm Partition (1-hr):149551', XB=6.735129,6.873629,25.03405,27.03405,0.0,3.535, RGB=244,244,244, SURF_ID='Plasterboard'/ 
&OBST ID='기본 벽:Interior - 138mm Partition (1-hr):149589', XB=6.873629,7.6162,26.89555,27.03405,0.0,3.535, RGB=244,244,244, SURF_ID='Plasterboard'/ 
&OBST ID='기본 벽:Interior - 138mm Partition (1-hr):150342', XB=7.6162,7.7547,7.7039,24.89555,0.0,3.8, RGB=244,244,244, SURF_ID='Plasterboard'/ 
&OBST ID='기본 벽:Generic - 200mm:150861', XB=7.6162,7.8162,-0.5461,7.7039,0.0,3.8, COLOR='GRAY', SURF_ID='Default Wall'/ 
&OBST ID='기본 벽:Exterior - Insulation on Masonry:150980', XB=7.6162,21.91805,-0.8491,-0.5461,0.0,3.8, RGB=234,234,234, SURF_ID='Insulation / Thermal Barriers - External Wall Insulation'/ 
&OBST ID='기본 벽:Generic - 200mm:151331', XB=10.4562,10.6562,-0.5461,7.7039,0.0,3.8, COLOR='GRAY', SURF_ID='Default Wall'/ 
&OBST ID='기본 벽:Interior - 138mm Partition (1-hr):152037', XB=12.98695,13.12545,5.2504,7.5654,0.0,3.8, RGB=244,244,244, SURF_ID='Plasterboard'/ 
&OBST ID='기본 벽:Interior - 138mm Partition (1-hr):152111', XB=16.377251,16.515751,-0.5461,7.5654,0.0,3.8, RGB=244,244,244, SURF_ID='Plasterboard'/ 
&OBST ID='기본 벽:Interior - 138mm Partition (1-hr):152271', XB=21.77955,21.91805,-0.5461,7.7039,0.0,3.8, RGB=244,244,244, SURF_ID='Plasterboard'/ 
&OBST ID='기본 벽:Interior - 138mm Partition (1-hr):152347', XB=13.12545,21.77955,5.2504,5.3889,-5.961738E-13,3.8, RGB=244,244,244, SURF_ID='Plasterboard'/ 
&OBST ID='기본 벽:Interior - 138mm Partition (1-hr):152882', XB=18.077251,18.215751,5.3889,7.7039,0.0,3.8, RGB=244,244,244, SURF_ID='Plasterboard'/ 
&OBST ID='기본 벽:Interior - 138mm Partition (1-hr):153000', XB=20.07955,20.21805,5.3889,7.7039,0.0,3.8, RGB=244,244,244, SURF_ID='Plasterboard'/ 
&OBST ID='기본 벽:Interior - 138mm Partition (1-hr):153162', XB=18.877251,19.015751,-0.5461,5.2504,0.0,3.8, RGB=244,244,244, SURF_ID='Plasterboard'/ 
&OBST ID='기본 벽:Interior - 138mm Partition (1-hr):153242', XB=19.377251,19.515751,-0.5461,5.2504,0.0,3.8, RGB=244,244,244, SURF_ID='Plasterboard'/ 
&OBST ID='기본 벽:Interior - 138mm Partition (1-hr):153435', XB=18.215751,20.07955,7.5654,7.7039,0.0,3.535, RGB=244,244,244, SURF_ID='Plasterboard'/ 
&OBST ID='기본 벽:Interior - 138mm Partition (1-hr):153506', XB=21.91805,62.731577,7.5654,7.7039,0.0,3.535, RGB=244,244,244, SURF_ID='Plasterboard'/ 
&OBST ID='기본 벽:Interior - 138mm Partition (1-hr):153904', XB=32.8488,32.9873,-0.5711,7.5654,0.0,3.535, RGB=244,244,244, SURF_ID='Plasterboard'/ 
&OBST ID='기본 벽:Interior - 138mm Partition (1-hr):154023', XB=50.8488,50.9873,-0.56535,7.5654,0.0,3.535, RGB=244,244,244, SURF_ID='Plasterboard'/ 
&OBST ID='기본 벽:Interior - 138mm Partition (1-hr):154119', XB=38.8488,38.9873,-0.5711,7.5654,0.0,3.535, RGB=244,244,244, SURF_ID='Plasterboard'/ 
&OBST ID='기본 벽:Interior - 138mm Partition (1-hr):154229', XB=56.8488,56.9873,-0.5711,7.5654,0.0,3.535, RGB=244,244,244, SURF_ID='Plasterboard'/ 
&OBST ID='기본 벽:Generic - 200mm:154279', XB=62.731578,62.931578,-0.8491,7.7039,0.0,3.8, COLOR='GRAY', SURF_ID='Default Wall'/ 
&OBST ID='기본 벽:Exterior - Insulation on Masonry:154427', XB=62.931578,65.571578,-0.8491,-0.5461,0.0,3.8, COLOR='GRAY', SURF_ID='Default Wall'/ 
&OBST ID='기본 벽:Exterior - Insulation on Masonry:169770', XB=-0.4953,7.82395,44.815352,45.118352,0.0,3.8, RGB=234,234,234, SURF_ID='Insulation / Thermal Barriers - External Wall Insulation'/ 
&OBST ID='기본 벽:Exterior - Insulation on Masonry:182328', XB=36.410899,36.713899,44.974102,53.116602,0.0,3.8, COLOR='GRAY', SURF_ID='Default Wall'/ 
&OBST ID='기본 벽:Interior - 138mm Partition (1-hr):187479', XB=7.6162,7.7547,26.89555,28.551,0.0,3.535, RGB=244,244,244, SURF_ID='Plasterboard'/ 
&OBST ID='M_Fixed:0915 x 1220mm:145733', XB=22.1311,23.0461,53.116602,53.419602,0.915,2.135, RGB=224,178,126, PERMIT_HOLE=.FALSE., SURF_ID='Sash'/ 
&OBST ID='기본 벽:Generic - 200mm:154279', XB=65.697,66.0,44.991602,53.5,0.0,3.8, COLOR='GRAY', SURF_ID='Default Wall'/ 
&OBST ID='기본 벽:Exterior - Insulation on Masonry:154427', XB=63.16,65.8,53.197,53.5,0.0,3.8, COLOR='GRAY', SURF_ID='Default Wall'/ 
&OBST ID='기본 벽:Exterior - Insulation on Masonry:139854', XB=62.96,63.16,44.947,53.5,0.0,3.8, COLOR='GRAY', SURF_ID='Default Wall'/ 
&OBST ID='기본 벽:Interior - 138mm Partition (1-hr):152271', XB=17.77955,17.91805,26.4539,34.7039,0.0,3.8, COLOR='GRAY', SURF_ID='Default Wall', TEXTURE_ORIGIN=15.0,0.0,0.0/ 
&OBST ID='기본 벽:Interior - 138mm Partition (1-hr):152271', XB=58.731577,58.870077,26.4539,34.7039,0.0,3.8, COLOR='GRAY', SURF_ID='Default Wall'/ 
&OBST ID='기본 벽:Interior - 138mm Partition (1-hr):153506', XB=17.91805,58.731577,34.5654,34.7039,0.0,3.535, RGB=244,244,244, SURF_ID='Plasterboard'/ 
&OBST ID='기본 벽:Interior - 138mm Partition (1-hr):154023', XB=46.8488,46.9873,26.43465,34.5654,0.0,3.535, RGB=244,244,244, SURF_ID='Plasterboard'/ 
&OBST ID='기본 벽:Interior - 138mm Partition (1-hr):153904', XB=28.8488,28.9873,26.4289,34.5654,0.0,3.535, RGB=244,244,244, SURF_ID='Plasterboard'/ 
&OBST ID='기본 벽:Interior - 138mm Partition (1-hr):152271', XB=17.77955,17.91805,26.4539,34.7039,0.0,3.8, COLOR='GRAY', SURF_ID='Default Wall', TEXTURE_ORIGIN=15.0,0.0,0.0/ 
&OBST ID='기본 벽:Interior - 138mm Partition (1-hr):153506', XB=17.91805,58.731577,26.4539,26.5924,0.0,3.535, RGB=244,244,244, SURF_ID='Plasterboard'/ 
&OBST ID='기본 벽:Interior - 138mm Partition (1-hr):152271', XB=58.731578,58.870078,18.3174,26.5674,0.0,3.8, COLOR='GRAY', SURF_ID='Default Wall', TEXTURE_ORIGIN=15.0,0.0,0.0/ 
&OBST ID='기본 벽:Interior - 138mm Partition (1-hr):152271', XB=17.779551,17.918051,18.3174,26.5674,0.0,3.8, COLOR='GRAY', SURF_ID='Default Wall'/ 
&OBST ID='기본 벽:Interior - 138mm Partition (1-hr):153506', XB=17.918051,58.731578,18.3174,18.4559,0.0,3.535, RGB=244,244,244, SURF_ID='Plasterboard'/ 
&OBST ID='기본 벽:Interior - 138mm Partition (1-hr):154023', XB=28.8488,28.9873,18.4559,26.58665,0.0,3.535, RGB=244,244,244, SURF_ID='Plasterboard'/ 
&OBST ID='기본 벽:Interior - 138mm Partition (1-hr):153904', XB=46.8488,46.9873,18.4559,26.5924,0.0,3.535, RGB=244,244,244, SURF_ID='Plasterboard'/ 
&OBST ID='기본 벽:Interior - 138mm Partition (1-hr):152271', XB=58.731578,58.870078,18.3174,26.5674,0.0,3.8, COLOR='GRAY', SURF_ID='Default Wall', TEXTURE_ORIGIN=15.0,0.0,0.0/ 
&OBST ID='기본 벽:Interior - 138mm Partition (1-hr):153506', XB=36.41,62.731577,44.8154,44.9539,0.0,3.535, RGB=244,244,244, SURF_ID='Plasterboard'/ 
&OBST ID='기본 벽:Interior - 138mm Partition (1-hr):144289', XB=54.33535,54.47385,44.959602,53.116602,0.0,3.535, RGB=244,244,244, SURF_ID='Plasterboard'/ 
&OBST ID='기본 벽:Interior - 138mm Partition (1-hr):144289', XB=43.33535,43.47385,44.959602,53.116602,0.0,3.535, RGB=244,244,244, SURF_ID='Plasterboard'/ 
&OBST ID='기본 벽:Interior - 138mm Partition (1-hr):144230', XB=21.31535,21.45385,44.959602,53.116602,0.0,3.535, RGB=244,244,244, SURF_ID='Plasterboard'/ 
&OBST ID='FIRE', XB=40.5,45.5,30.5,34.0,0.1,0.5, BULK_DENSITY=0.01, SURF_IDS='Fire','INERT','INERT'/ 
&OBST ID='Obstruction', XB=-0.5,0.5,-0.5,0.5,-0.1,0.1, SURF_ID='bed_Foam'/ 
&OBST ID='Obstruction', XB=0.5,1.5,-0.5,0.5,-0.1,0.1, SURF_ID='bed_Foam'/ 
&OBST ID='Obstruction', XB=1.5,2.5,-0.5,0.5,-0.1,0.1, SURF_ID='bed_Foam'/ 
&OBST ID='Obstruction', XB=2.5,3.5,-0.5,0.5,-0.1,0.1, SURF_ID='bed_Foam'/ 
&OBST ID='Obstruction', XB=3.5,4.5,-0.5,0.5,-0.1,0.1, SURF_ID='bed_Foam'/ 
&OBST ID='Obstruction', XB=4.5,5.5,-0.5,0.5,-0.1,0.1, SURF_ID='bed_Foam'/ 
&OBST ID='Obstruction', XB=5.5,6.5,-0.5,0.5,-0.1,0.1, SURF_ID='bed_Foam'/ 
&OBST ID='Obstruction', XB=6.5,7.5,-0.5,0.5,-0.1,0.1, SURF_ID='bed_Foam'/ 
&OBST ID='Obstruction', XB=7.5,8.5,-0.5,0.5,-0.1,0.1, SURF_ID='bed_Foam'/ 
&OBST ID='Obstruction', XB=8.5,9.5,-0.5,0.5,-0.1,0.1, SURF_ID='bed_Foam'/ 
&OBST ID='Obstruction', XB=9.5,10.5,-0.5,0.5,-0.1,0.1, SURF_ID='bed_Foam'/ 
&OBST ID='Obstruction', XB=10.5,11.5,-0.5,0.5,-0.1,0.1, SURF_ID='bed_Foam'/ 
&OBST ID='Obstruction', XB=11.5,12.5,-0.5,0.5,-0.1,0.1, SURF_ID='bed_Foam'/ 
&OBST ID='Obstruction', XB=12.5,13.5,-0.5,0.5,-0.1,0.1, SURF_ID='bed_Foam'/ 
&OBST ID='Obstruction', XB=13.5,14.5,-0.5,0.5,-0.1,0.1, SURF_ID='bed_Foam'/ 
&OBST ID='Obstruction', XB=14.5,15.5,-0.5,0.5,-0.1,0.1, SURF_ID='bed_Foam'/ 
&OBST ID='Obstruction', XB=15.5,16.5,-0.5,0.5,-0.1,0.1, SURF_ID='bed_Foam'/ 
&OBST ID='Obstruction', XB=16.5,17.5,-0.5,0.5,-0.1,0.1, SURF_ID='bed_Foam'/ 
&OBST ID='Obstruction', XB=17.5,18.5,-0.5,0.5,-0.1,0.1, SURF_ID='bed_Foam'/ 
&OBST ID='Obstruction', XB=18.5,19.5,-0.5,0.5,-0.1,0.1, SURF_ID='bed_Foam'/ 
&OBST ID='Obstruction', XB=19.5,20.5,-0.5,0.5,-0.1,0.1, SURF_ID='bed_Foam'/ 
&OBST ID='Obstruction', XB=20.5,21.5,-0.5,0.5,-0.1,0.1, SURF_ID='bed_Foam'/ 
&OBST ID='Obstruction', XB=21.5,22.5,-0.5,0.5,-0.1,0.1, SURF_ID='bed_Foam'/ 
&OBST ID='Obstruction', XB=22.5,23.5,-0.5,0.5,-0.1,0.1, SURF_ID='bed_Foam'/ 
&OBST ID='Obstruction', XB=23.5,24.5,-0.5,0.5,-0.1,0.1, SURF_ID='bed_Foam'/ 
&OBST ID='Obstruction', XB=24.5,25.5,-0.5,0.5,-0.1,0.1, SURF_ID='bed_Foam'/ 
&OBST ID='Obstruction', XB=25.5,26.5,-0.5,0.5,-0.1,0.1, SURF_ID='bed_Foam'/ 
&OBST ID='Obstruction', XB=26.5,27.5,-0.5,0.5,-0.1,0.1, SURF_ID='bed_Foam'/ 
&OBST ID='Obstruction', XB=27.5,28.5,-0.5,0.5,-0.1,0.1, SURF_ID='bed_Foam'/ 
&OBST ID='Obstruction', XB=28.5,29.5,-0.5,0.5,-0.1,0.1, SURF_ID='bed_Foam'/ 
&OBST ID='Obstruction', XB=29.5,30.5,-0.5,0.5,-0.1,0.1, SURF_ID='bed_Foam'/ 
&OBST ID='Obstruction', XB=30.5,31.5,-0.5,0.5,-0.1,0.1, SURF_ID='bed_Foam'/ 
&OBST ID='Obstruction', XB=31.5,32.5,-0.5,0.5,-0.1,0.1, SURF_ID='bed_Foam'/ 
&OBST ID='Obstruction', XB=32.5,33.5,-0.5,0.5,-0.1,0.1, SURF_ID='bed_Foam'/ 
&OBST ID='Obstruction', XB=33.5,34.5,-0.5,0.5,-0.1,0.1, SURF_ID='bed_Foam'/ 
&OBST ID='Obstruction', XB=34.5,35.5,-0.5,0.5,-0.1,0.1, SURF_ID='bed_Foam'/ 
&OBST ID='Obstruction', XB=35.5,36.5,-0.5,0.5,-0.1,0.1, SURF_ID='bed_Foam'/ 
&OBST ID='Obstruction', XB=36.5,37.5,-0.5,0.5,-0.1,0.1, SURF_ID='bed_Foam'/ 
&OBST ID='Obstruction', XB=37.5,38.5,-0.5,0.5,-0.1,0.1, SURF_ID='bed_Foam'/ 
&OBST ID='Obstruction', XB=38.5,39.5,-0.5,0.5,-0.1,0.1, SURF_ID='bed_Foam'/ 
&OBST ID='Obstruction', XB=39.5,40.5,-0.5,0.5,-0.1,0.1, SURF_ID='bed_Foam'/ 
&OBST ID='Obstruction', XB=40.5,41.5,-0.5,0.5,-0.1,0.1, SURF_ID='bed_Foam'/ 
&OBST ID='Obstruction', XB=41.5,42.5,-0.5,0.5,-0.1,0.1, SURF_ID='bed_Foam'/ 
&OBST ID='Obstruction', XB=42.5,43.5,-0.5,0.5,-0.1,0.1, SURF_ID='bed_Foam'/ 
&OBST ID='Obstruction', XB=43.5,44.5,-0.5,0.5,-0.1,0.1, SURF_ID='bed_Foam'/ 
&OBST ID='Obstruction', XB=44.5,45.5,-0.5,0.5,-0.1,0.1, SURF_ID='bed_Foam'/ 
&OBST ID='Obstruction', XB=45.5,46.5,-0.5,0.5,-0.1,0.1, SURF_ID='bed_Foam'/ 
&OBST ID='Obstruction', XB=46.5,47.5,-0.5,0.5,-0.1,0.1, SURF_ID='bed_Foam'/ 
&OBST ID='Obstruction', XB=47.5,48.5,-0.5,0.5,-0.1,0.1, SURF_ID='bed_Foam'/ 
&OBST ID='Obstruction', XB=48.5,49.5,-0.5,0.5,-0.1,0.1, SURF_ID='bed_Foam'/ 
&OBST ID='Obstruction', XB=49.5,50.5,-0.5,0.5,-0.1,0.1, SURF_ID='bed_Foam'/ 
&OBST ID='Obstruction', XB=50.5,51.5,-0.5,0.5,-0.1,0.1, SURF_ID='bed_Foam'/ 
&OBST ID='Obstruction', XB=51.5,52.5,-0.5,0.5,-0.1,0.1, SURF_ID='bed_Foam'/ 
&OBST ID='Obstruction', XB=52.5,53.5,-0.5,0.5,-0.1,0.1, SURF_ID='bed_Foam'/ 
&OBST ID='Obstruction', XB=53.5,54.5,-0.5,0.5,-0.1,0.1, SURF_ID='bed_Foam'/ 
&OBST ID='Obstruction', XB=54.5,55.5,-0.5,0.5,-0.1,0.1, SURF_ID='bed_Foam'/ 
&OBST ID='Obstruction', XB=55.5,56.5,-0.5,0.5,-0.1,0.1, SURF_ID='bed_Foam'/ 
&OBST ID='Obstruction', XB=56.5,57.5,-0.5,0.5,-0.1,0.1, SURF_ID='bed_Foam'/ 
&OBST ID='Obstruction', XB=57.5,58.5,-0.5,0.5,-0.1,0.1, SURF_ID='bed_Foam'/ 
&OBST ID='Obstruction', XB=58.5,59.5,-0.5,0.5,-0.1,0.1, SURF_ID='bed_Foam'/ 
&OBST ID='Obstruction', XB=59.5,60.5,-0.5,0.5,-0.1,0.1, SURF_ID='bed_Foam'/ 
&OBST ID='Obstruction', XB=60.5,61.5,-0.5,0.5,-0.1,0.1, SURF_ID='bed_Foam'/ 
&OBST ID='Obstruction', XB=61.5,62.5,-0.5,0.5,-0.1,0.1, SURF_ID='bed_Foam'/ 
&OBST ID='Obstruction', XB=62.5,63.5,-0.5,0.5,-0.1,0.1, SURF_ID='bed_Foam'/ 
&OBST ID='Obstruction', XB=63.5,64.5,-0.5,0.5,-0.1,0.1, SURF_ID='bed_Foam'/ 
&OBST ID='Obstruction', XB=64.5,65.5,-0.5,0.5,-0.1,0.1, SURF_ID='bed_Foam'/ 
&OBST ID='Obstruction', XB=-0.5,0.5,0.5,1.5,-0.1,0.1, SURF_ID='bed_Foam'/ 
&OBST ID='Obstruction', XB=0.5,1.5,0.5,1.5,-0.1,0.1, SURF_ID='bed_Foam'/ 
&OBST ID='Obstruction', XB=1.5,2.5,0.5,1.5,-0.1,0.1, SURF_ID='bed_Foam'/ 
&OBST ID='Obstruction', XB=2.5,3.5,0.5,1.5,-0.1,0.1, SURF_ID='bed_Foam'/ 
&OBST ID='Obstruction', XB=3.5,4.5,0.5,1.5,-0.1,0.1, SURF_ID='bed_Foam'/ 
&OBST ID='Obstruction', XB=4.5,5.5,0.5,1.5,-0.1,0.1, SURF_ID='bed_Foam'/ 
&OBST ID='Obstruction', XB=5.5,6.5,0.5,1.5,-0.1,0.1, SURF_ID='bed_Foam'/ 
&OBST ID='Obstruction', XB=6.5,7.5,0.5,1.5,-0.1,0.1, SURF_ID='bed_Foam'/ 
&OBST ID='Obstruction', XB=7.5,8.5,0.5,1.5,-0.1,0.1, SURF_ID='bed_Foam'/ 
&OBST ID='Obstruction', XB=8.5,9.5,0.5,1.5,-0.1,0.1, SURF_ID='bed_Foam'/ 
&OBST ID='Obstruction', XB=9.5,10.5,0.5,1.5,-0.1,0.1, SURF_ID='bed_Foam'/ 
&OBST ID='Obstruction', XB=10.5,11.5,0.5,1.5,-0.1,0.1, SURF_ID='bed_Foam'/ 
&OBST ID='Obstruction', XB=11.5,12.5,0.5,1.5,-0.1,0.1, SURF_ID='bed_Foam'/ 
&OBST ID='Obstruction', XB=12.5,13.5,0.5,1.5,-0.1,0.1, SURF_ID='bed_Foam'/ 
&OBST ID='Obstruction', XB=13.5,14.5,0.5,1.5,-0.1,0.1, SURF_ID='bed_Foam'/ 
&OBST ID='Obstruction', XB=14.5,15.5,0.5,1.5,-0.1,0.1, SURF_ID='bed_Foam'/ 
&OBST ID='Obstruction', XB=15.5,16.5,0.5,1.5,-0.1,0.1, SURF_ID='bed_Foam'/ 
&OBST ID='Obstruction', XB=16.5,17.5,0.5,1.5,-0.1,0.1, SURF_ID='bed_Foam'/ 
&OBST ID='Obstruction', XB=17.5,18.5,0.5,1.5,-0.1,0.1, SURF_ID='bed_Foam'/ 
&OBST ID='Obstruction', XB=18.5,19.5,0.5,1.5,-0.1,0.1, SURF_ID='bed_Foam'/ 
&OBST ID='Obstruction', XB=19.5,20.5,0.5,1.5,-0.1,0.1, SURF_ID='bed_Foam'/ 
&OBST ID='Obstruction', XB=20.5,21.5,0.5,1.5,-0.1,0.1, SURF_ID='bed_Foam'/ 
&OBST ID='Obstruction', XB=21.5,22.5,0.5,1.5,-0.1,0.1, SURF_ID='bed_Foam'/ 
&OBST ID='Obstruction', XB=22.5,23.5,0.5,1.5,-0.1,0.1, SURF_ID='bed_Foam'/ 
&OBST ID='Obstruction', XB=23.5,24.5,0.5,1.5,-0.1,0.1, SURF_ID='bed_Foam'/ 
&OBST ID='Obstruction', XB=24.5,25.5,0.5,1.5,-0.1,0.1, SURF_ID='bed_Foam'/ 
&OBST ID='Obstruction', XB=25.5,26.5,0.5,1.5,-0.1,0.1, SURF_ID='bed_Foam'/ 
&OBST ID='Obstruction', XB=26.5,27.5,0.5,1.5,-0.1,0.1, SURF_ID='bed_Foam'/ 
&OBST ID='Obstruction', XB=27.5,28.5,0.5,1.5,-0.1,0.1, SURF_ID='bed_Foam'/ 
&OBST ID='Obstruction', XB=28.5,29.5,0.5,1.5,-0.1,0.1, SURF_ID='bed_Foam'/ 
&OBST ID='Obstruction', XB=29.5,30.5,0.5,1.5,-0.1,0.1, SURF_ID='bed_Foam'/ 
&OBST ID='Obstruction', XB=30.5,31.5,0.5,1.5,-0.1,0.1, SURF_ID='bed_Foam'/ 
&OBST ID='Obstruction', XB=31.5,32.5,0.5,1.5,-0.1,0.1, SURF_ID='bed_Foam'/ 
&OBST ID='Obstruction', XB=32.5,33.5,0.5,1.5,-0.1,0.1, SURF_ID='bed_Foam'/ 
&OBST ID='Obstruction', XB=33.5,34.5,0.5,1.5,-0.1,0.1, SURF_ID='bed_Foam'/ 